CM Example 1 :	Dipole in free space 	
CM See GetStarted.txt
CM 
CM 
CM 
CM 
CM forw: 90, 225 ; back:-90, 225
CE
GW 1 49 0 0 0 0 0 0.75 0.005
GW 2 49 0.375 0 0 0.375 0 0.75 0.005
GW 3 49 0.375 -0.375 0 0.375 -0.375 0.75 0.005
GW 4 49 0.375 0.375 0 0.375 0.375 0.75 0.005
GW 5 49 0 0.375 0 0 0.375 0.75 0.005
GW 6 49 -0.375 0.375 0 -0.375 0.375 0.75 0.005
GE 0
GN -1
EK
EX 0 1 25 0 1 0 0 0
FR 0 0 0 0 200 0
XQ
FR 0 101 0 0 200 10
RP 0 73 1 1000 -180 225 5
